/*--------------------------------*- C++ -*----------------------------------*\
  =========                 |
  \\      /  F ield         | OpenFOAM: The Open Source CFD Toolbox
   \\    /   O peration     | Website:  https://openfoam.org
    \\  /    A nd           | Version:  10
     \\/     M anipulation  |
\*---------------------------------------------------------------------------*/
FoamFile
{
    format      ascii;
    class       polyBoundaryMesh;
    location    "constant/polyMesh";
    object      boundary;
}
// * * * * * * * * * * * * * * * * * * * * * * * * * * * * * * * * * * * * * //

3
(
    piston
    {
        type            wall;
        inGroups        List<word> 1(wall);
        nFaces          1326;
        startFace       79522;
    }
    liner
    {
        type            wall;
        inGroups        List<word> 1(wall);
        nFaces          2710;
        startFace       80848;
    }
    cylinderHead
    {
        type            wall;
        inGroups        List<word> 1(wall);
        nFaces          2184;
        startFace       83558;
    }
)

// ************************************************************************* //
